
 *******************************************************************************

         NASA-GLENN CHEMICAL EQUILIBRIUM PROGRAM CEA2, MAY 21, 2004
                   BY  BONNIE MCBRIDE AND SANFORD GORDON
      REFS: NASA RP-1311, PART I, 1994 AND NASA RP-1311, PART II, 1996

 *******************************************************************************



 prob case=test1172 ro equilibrium
  
  ! iac problem
 o/f 1 1.5 2
 p,bar  2000 2500 3000
 reac
   fuel  H2(L) wt%=100. t,k=20.27
   oxid  N2O wt%=100.  t,k=298.15
 output    short
 output trace=1e-5
 plot
  p t
 end





              THEORETICAL ROCKET PERFORMANCE ASSUMING EQUILIBRIUM

           COMPOSITION DURING EXPANSION FROM INFINITE AREA COMBUSTOR

 Pin = 29007.7 PSIA
 CASE = test1172       

             REACTANT                    WT FRACTION      ENERGY      TEMP
                                          (SEE NOTE)     KJ/KG-MOL      K  
 FUEL        H2(L)                        1.0000000     -9012.000     20.270
 OXIDANT     N2O                          1.0000000     81600.000    298.150

 O/F=    1.00000  %FUEL= 50.000000  R,EQ.RATIO=21.833046  PHI,EQ.RATIO=21.833046

                 CHAMBER   THROAT
 Pinf/P            1.0000   1.8397
 P, BAR           2000.00  1087.11
 T, K              640.77   548.87
 RHO, KG/CU M    1.5861 2 1.0107 2
 H, KJ/KG        -1308.25 -2018.10
 U, KJ/KG        -2569.17 -3093.71
 G, KJ/KG        -17045.6 -15498.5
 S, KJ/(KG)(K)    24.5601  24.5601

 M, (1/n)           4.225    4.243
 MW, MOL WT         4.225    4.225
 (dLV/dLP)t      -1.00003 -1.04608
 (dLV/dLT)p        1.0003   1.3302
 Cp, KJ/(KG)(K)    7.4287  12.0215
 GAMMAs            1.3606   1.3199
 SON VEL,M/SEC     1309.8   1191.5
 MACH NUMBER        0.000    1.000

 PERFORMANCE PARAMETERS

 Ae/At                      1.0000
 CSTAR, M/SEC               1660.8
 CF                         0.7174
 Ivac, M/SEC                2094.2
 Isp, M/SEC                 1191.5


 MOLE FRACTIONS

 *H2             8.5601-1 8.5600-1
 H2O             4.8000-2 4.3868-2
 NH3             9.5984-2 9.5999-2
 H2O(L)          0.0000 0 4.1329-3

  * THERMODYNAMIC PROPERTIES FITTED TO 20000.K

 NOTE. WEIGHT FRACTION OF FUEL IN TOTAL FUELS AND OF OXIDANT IN TOTAL OXIDANTS










              THEORETICAL ROCKET PERFORMANCE ASSUMING EQUILIBRIUM

           COMPOSITION DURING EXPANSION FROM INFINITE AREA COMBUSTOR

 Pin = 36259.6 PSIA
 CASE = test1172       

             REACTANT                    WT FRACTION      ENERGY      TEMP
                                          (SEE NOTE)     KJ/KG-MOL      K  
 FUEL        H2(L)                        1.0000000     -9012.000     20.270
 OXIDANT     N2O                          1.0000000     81600.000    298.150

 O/F=    1.00000  %FUEL= 50.000000  R,EQ.RATIO=21.833046  PHI,EQ.RATIO=21.833046

                 CHAMBER   THROAT
 Pinf/P            1.0000   1.8424
 P, BAR           2500.00  1356.93
 T, K              640.78   554.82
 RHO, KG/CU M    1.9827 2 1.2558 2
 H, KJ/KG        -1308.25 -2021.42
 U, KJ/KG        -2569.18 -3101.94
 G, KJ/KG        -16764.4 -15404.2
 S, KJ/(KG)(K)    24.1210  24.1210

 M, (1/n)           4.225    4.269
 MW, MOL WT         4.225    4.225
 (dLV/dLP)t      -1.00002 -1.03960
 (dLV/dLT)p        1.0002   1.2777
 Cp, KJ/(KG)(K)    7.4266  11.2728
 GAMMAs            1.3606   1.3200
 SON VEL,M/SEC     1309.8   1194.3
 MACH NUMBER        0.000    1.000

 PERFORMANCE PARAMETERS

 Ae/At                      1.0000
 CSTAR, M/SEC               1666.9
 CF                         0.7165
 Ivac, M/SEC                2099.0
 Isp, M/SEC                 1194.3


 MOLE FRACTIONS

 *H2             8.5600-1 8.5600-1
 H2O             4.8000-2 3.7698-2
 NH3             9.5990-2 9.5999-2
 H2O(L)          0.0000 0 1.0302-2

  * THERMODYNAMIC PROPERTIES FITTED TO 20000.K

 NOTE. WEIGHT FRACTION OF FUEL IN TOTAL FUELS AND OF OXIDANT IN TOTAL OXIDANTS










              THEORETICAL ROCKET PERFORMANCE ASSUMING EQUILIBRIUM

           COMPOSITION DURING EXPANSION FROM INFINITE AREA COMBUSTOR

 Pin = 43511.5 PSIA
 CASE = test1172       

             REACTANT                    WT FRACTION      ENERGY      TEMP
                                          (SEE NOTE)     KJ/KG-MOL      K  
 FUEL        H2(L)                        1.0000000     -9012.000     20.270
 OXIDANT     N2O                          1.0000000     81600.000    298.150

 O/F=    1.00000  %FUEL= 50.000000  R,EQ.RATIO=21.833046  PHI,EQ.RATIO=21.833046

                 CHAMBER   THROAT
 Pinf/P            1.0000   1.8415
 P, BAR           3000.00  1629.09
 T, K              640.78   559.27
 RHO, KG/CU M    2.3792 2 1.5028 2
 H, KJ/KG        -1308.25 -2023.44
 U, KJ/KG        -2569.19 -3107.51
 G, KJ/KG        -16534.6 -15313.0
 S, KJ/(KG)(K)    23.7622  23.7622

 M, (1/n)           4.225    4.289
 MW, MOL WT         4.225    4.225
 (dLV/dLP)t      -1.00001 -1.03471
 (dLV/dLT)p        1.0001   1.2395
 Cp, KJ/(KG)(K)    7.4254  10.7577
 GAMMAs            1.3607   1.3194
 SON VEL,M/SEC     1309.9   1196.0
 MACH NUMBER        0.000    1.000

 PERFORMANCE PARAMETERS

 Ae/At                      1.0000
 CSTAR, M/SEC               1669.2
 CF                         0.7165
 Ivac, M/SEC                2102.4
 Isp, M/SEC                 1196.0


 MOLE FRACTIONS

 *H2             8.5600-1 8.5600-1
 H2O             4.8000-2 3.3041-2
 NH3             9.5994-2 9.6000-2
 H2O(L)          0.0000 0 1.4960-2

  * THERMODYNAMIC PROPERTIES FITTED TO 20000.K

 NOTE. WEIGHT FRACTION OF FUEL IN TOTAL FUELS AND OF OXIDANT IN TOTAL OXIDANTS










              THEORETICAL ROCKET PERFORMANCE ASSUMING EQUILIBRIUM

           COMPOSITION DURING EXPANSION FROM INFINITE AREA COMBUSTOR

 Pin = 29007.7 PSIA
 CASE = test1172       

             REACTANT                    WT FRACTION      ENERGY      TEMP
                                          (SEE NOTE)     KJ/KG-MOL      K  
 FUEL        H2(L)                        1.0000000     -9012.000     20.270
 OXIDANT     N2O                          1.0000000     81600.000    298.150

 O/F=    1.50000  %FUEL= 40.000000  R,EQ.RATIO=14.555364  PHI,EQ.RATIO=14.555364

                 CHAMBER   THROAT
 Pinf/P            1.0000   1.8405
 P, BAR           2000.00  1086.68
 T, K              920.54   803.39
 RHO, KG/CU M    1.3916 2 8.7331 1
 H, KJ/KG         -675.80 -1492.41
 U, KJ/KG        -2113.00 -2736.73
 G, KJ/KG        -21683.2 -19826.4
 S, KJ/(KG)(K)    22.8207  22.8207

 M, (1/n)           5.326    5.368
 MW, MOL WT         5.326    5.368
 (dLV/dLP)t      -1.02436 -1.01395
 (dLV/dLT)p        1.1739   1.1122
 Cp, KJ/(KG)(K)    8.2944   7.6003
 GAMMAs            1.3072   1.3126
 SON VEL,M/SEC     1370.7   1278.0
 MACH NUMBER        0.000    1.000

 PERFORMANCE PARAMETERS

 Ae/At                      1.0000
 CSTAR, M/SEC               1792.0
 CF                         0.7132
 Ivac, M/SEC                2251.6
 Isp, M/SEC                 1278.0


 MOLE FRACTIONS

 *H2             7.9014-1 7.8445-1
 H2O             7.2600-2 7.3182-2
 NH3             1.2931-1 1.3837-1
 *N2             7.9430-3 3.9948-3

  * THERMODYNAMIC PROPERTIES FITTED TO 20000.K

 NOTE. WEIGHT FRACTION OF FUEL IN TOTAL FUELS AND OF OXIDANT IN TOTAL OXIDANTS










              THEORETICAL ROCKET PERFORMANCE ASSUMING EQUILIBRIUM

           COMPOSITION DURING EXPANSION FROM INFINITE AREA COMBUSTOR

 Pin = 36259.6 PSIA
 CASE = test1172       

             REACTANT                    WT FRACTION      ENERGY      TEMP
                                          (SEE NOTE)     KJ/KG-MOL      K  
 FUEL        H2(L)                        1.0000000     -9012.000     20.270
 OXIDANT     N2O                          1.0000000     81600.000    298.150

 O/F=    1.50000  %FUEL= 40.000000  R,EQ.RATIO=14.555364  PHI,EQ.RATIO=14.555364

                 CHAMBER   THROAT
 Pinf/P            1.0000   1.8429
 P, BAR           2500.00  1356.58
 T, K              926.76   806.52
 RHO, KG/CU M    1.7345 2 1.0885 2
 H, KJ/KG         -675.80 -1496.04
 U, KJ/KG        -2117.13 -2742.33
 G, KJ/KG        -21502.8 -19621.0
 S, KJ/(KG)(K)    22.4730  22.4730

 M, (1/n)           5.346    5.381
 MW, MOL WT         5.346    5.381
 (dLV/dLP)t      -1.01972 -1.01035
 (dLV/dLT)p        1.1399   1.0829
 Cp, KJ/(KG)(K)    7.9035   7.2296
 GAMMAs            1.3089   1.3163
 SON VEL,M/SEC     1373.5   1280.8
 MACH NUMBER        0.000    1.000

 PERFORMANCE PARAMETERS

 Ae/At                      1.0000
 CSTAR, M/SEC               1793.2
 CF                         0.7143
 Ivac, M/SEC                2253.9
 Isp, M/SEC                 1280.8


 MOLE FRACTIONS

 *H2             7.8740-1 7.8280-1
 H2O             7.2880-2 7.3351-2
 NH3             1.3368-1 1.4100-1
 *N2             6.0413-3 2.8508-3

  * THERMODYNAMIC PROPERTIES FITTED TO 20000.K

 NOTE. WEIGHT FRACTION OF FUEL IN TOTAL FUELS AND OF OXIDANT IN TOTAL OXIDANTS










              THEORETICAL ROCKET PERFORMANCE ASSUMING EQUILIBRIUM

           COMPOSITION DURING EXPANSION FROM INFINITE AREA COMBUSTOR

 Pin = 43511.5 PSIA
 CASE = test1172       

             REACTANT                    WT FRACTION      ENERGY      TEMP
                                          (SEE NOTE)     KJ/KG-MOL      K  
 FUEL        H2(L)                        1.0000000     -9012.000     20.270
 OXIDANT     N2O                          1.0000000     81600.000    298.150

 O/F=    1.50000  %FUEL= 40.000000  R,EQ.RATIO=14.555364  PHI,EQ.RATIO=14.555364

                 CHAMBER   THROAT
 Pinf/P            1.0000   1.8447
 P, BAR           3000.00  1626.32
 T, K              931.05   808.48
 RHO, KG/CU M    2.0774 2 1.3037 2
 H, KJ/KG         -675.80 -1498.57
 U, KJ/KG        -2119.95 -2746.06
 G, KJ/KG        -21335.6 -19438.6
 S, KJ/(KG)(K)    22.1898  22.1898

 M, (1/n)           5.360    5.389
 MW, MOL WT         5.360    5.389
 (dLV/dLP)t      -1.01609 -1.00789
 (dLV/dLT)p        1.1137   1.0631
 Cp, KJ/(KG)(K)    7.6079   6.9809
 GAMMAs            1.3103   1.3191
 SON VEL,M/SEC     1375.6   1282.8
 MACH NUMBER        0.000    1.000

 PERFORMANCE PARAMETERS

 Ae/At                      1.0000
 CSTAR, M/SEC               1793.9
 CF                         0.7151
 Ivac, M/SEC                2255.3
 Isp, M/SEC                 1282.8


 MOLE FRACTIONS

 *H2             7.8549-1 7.8174-1
 H2O             7.3075-2 7.3459-2
 NH3             1.3671-1 1.4268-1
 *N2             4.7191-3 2.1200-3

  * THERMODYNAMIC PROPERTIES FITTED TO 20000.K

 NOTE. WEIGHT FRACTION OF FUEL IN TOTAL FUELS AND OF OXIDANT IN TOTAL OXIDANTS










              THEORETICAL ROCKET PERFORMANCE ASSUMING EQUILIBRIUM

           COMPOSITION DURING EXPANSION FROM INFINITE AREA COMBUSTOR

 Pin = 29007.7 PSIA
 CASE = test1172       

             REACTANT                    WT FRACTION      ENERGY      TEMP
                                          (SEE NOTE)     KJ/KG-MOL      K  
 FUEL        H2(L)                        1.0000000     -9012.000     20.270
 OXIDANT     N2O                          1.0000000     81600.000    298.150

 O/F=    2.00000  %FUEL= 33.333333  R,EQ.RATIO=10.916523  PHI,EQ.RATIO=10.916523

                 CHAMBER   THROAT
 Pinf/P            1.0000   1.8297
 P, BAR           2000.00  1093.08
 T, K             1083.59   954.49
 RHO, KG/CU M    1.3500 2 8.4831 1
 H, KJ/KG         -254.16 -1089.38
 U, KJ/KG        -1735.64 -2377.93
 G, KJ/KG        -23228.3 -21326.4
 S, KJ/(KG)(K)    21.2019  21.2019

 M, (1/n)           6.081    6.159
 MW, MOL WT         6.081    6.159
 (dLV/dLP)t      -1.05572 -1.05682
 (dLV/dLT)p        1.3434   1.3928
 Cp, KJ/(KG)(K)    8.5515   9.1738
 GAMMAs            1.3034   1.2964
 SON VEL,M/SEC     1389.6   1292.5
 MACH NUMBER        0.000    1.000

 PERFORMANCE PARAMETERS

 Ae/At                      1.0000
 CSTAR, M/SEC               1824.2
 CF                         0.7085
 Ivac, M/SEC                2289.4
 Isp, M/SEC                 1292.5


 MOLE FRACTIONS

 *H2             7.6692-1 7.5757-1
 H2O             9.2116-2 9.3290-2
 NH3             9.7705-2 1.1170-1
 *N2             4.3264-2 3.7442-2

  * THERMODYNAMIC PROPERTIES FITTED TO 20000.K

 NOTE. WEIGHT FRACTION OF FUEL IN TOTAL FUELS AND OF OXIDANT IN TOTAL OXIDANTS










              THEORETICAL ROCKET PERFORMANCE ASSUMING EQUILIBRIUM

           COMPOSITION DURING EXPANSION FROM INFINITE AREA COMBUSTOR

 Pin = 36259.6 PSIA
 CASE = test1172       

             REACTANT                    WT FRACTION      ENERGY      TEMP
                                          (SEE NOTE)     KJ/KG-MOL      K  
 FUEL        H2(L)                        1.0000000     -9012.000     20.270
 OXIDANT     N2O                          1.0000000     81600.000    298.150

 O/F=    2.00000  %FUEL= 33.333333  R,EQ.RATIO=10.916523  PHI,EQ.RATIO=10.916523

                 CHAMBER   THROAT
 Pinf/P            1.0000   1.8290
 P, BAR           2500.00  1366.85
 T, K             1096.96   966.49
 RHO, KG/CU M    1.6809 2 1.0558 2
 H, KJ/KG         -254.16 -1092.51
 U, KJ/KG        -1741.48 -2387.12
 G, KJ/KG        -23178.5 -21290.4
 S, KJ/(KG)(K)    20.8981  20.8981

 M, (1/n)           6.132    6.207
 MW, MOL WT         6.132    6.207
 (dLV/dLP)t      -1.05665 -1.05653
 (dLV/dLT)p        1.3452   1.3864
 Cp, KJ/(KG)(K)    8.5195   9.0523
 GAMMAs            1.3010   1.2952
 SON VEL,M/SEC     1391.0   1294.9
 MACH NUMBER        0.000    1.000

 PERFORMANCE PARAMETERS

 Ae/At                      1.0000
 CSTAR, M/SEC               1828.7
 CF                         0.7081
 Ivac, M/SEC                2294.7
 Isp, M/SEC                 1294.9


 MOLE FRACTIONS

 *H2             7.6079-1 7.5175-1
 H2O             9.2886-2 9.4021-2
 NH3             1.0688-1 1.2041-1
 *N2             3.9446-2 3.3817-2

  * THERMODYNAMIC PROPERTIES FITTED TO 20000.K

 NOTE. WEIGHT FRACTION OF FUEL IN TOTAL FUELS AND OF OXIDANT IN TOTAL OXIDANTS










              THEORETICAL ROCKET PERFORMANCE ASSUMING EQUILIBRIUM

           COMPOSITION DURING EXPANSION FROM INFINITE AREA COMBUSTOR

 Pin = 43511.5 PSIA
 CASE = test1172       

             REACTANT                    WT FRACTION      ENERGY      TEMP
                                          (SEE NOTE)     KJ/KG-MOL      K  
 FUEL        H2(L)                        1.0000000     -9012.000     20.270
 OXIDANT     N2O                          1.0000000     81600.000    298.150

 O/F=    2.00000  %FUEL= 33.333333  R,EQ.RATIO=10.916523  PHI,EQ.RATIO=10.916523

                 CHAMBER   THROAT
 Pinf/P            1.0000   1.8285
 P, BAR           3000.00  1640.69
 T, K             1107.97   976.29
 RHO, KG/CU M    2.0109 2 1.2627 2
 H, KJ/KG         -254.16 -1094.97
 U, KJ/KG        -1746.07 -2394.36
 G, KJ/KG        -23135.7 -21257.0
 S, KJ/(KG)(K)    20.6518  20.6518

 M, (1/n)           6.175    6.247
 MW, MOL WT         6.175    6.247
 (dLV/dLP)t      -1.05681 -1.05568
 (dLV/dLT)p        1.3430   1.3772
 Cp, KJ/(KG)(K)    8.4636   8.9202
 GAMMAs            1.2989   1.2942
 SON VEL,M/SEC     1392.1   1296.8
 MACH NUMBER        0.000    1.000

 PERFORMANCE PARAMETERS

 Ae/At                     1.00000
 CSTAR, M/SEC               1832.2
 CF                         0.7078
 Ivac, M/SEC                2298.8
 Isp, M/SEC                 1296.8


 MOLE FRACTIONS

 *H2             7.5566-1 7.4695-1
 H2O             9.3531-2 9.4625-2
 NH3             1.1456-1 1.2760-1
 *N2             3.6251-2 3.0824-2

  * THERMODYNAMIC PROPERTIES FITTED TO 20000.K

 NOTE. WEIGHT FRACTION OF FUEL IN TOTAL FUELS AND OF OXIDANT IN TOTAL OXIDANTS



