
 *******************************************************************************

         NASA-GLENN CHEMICAL EQUILIBRIUM PROGRAM CEA2, MAY 21, 2004
                   BY  BONNIE MCBRIDE AND SANFORD GORDON
      REFS: NASA RP-1311, PART I, 1994 AND NASA RP-1311, PART II, 1996

 *******************************************************************************



  
  
  
 #                               SAMPLE PROBLEMS
  
  
 #  EXAMPLE 1:
 #     (a)  Assigned-temperature-and-pressure problem (tp).
 #     (b)  Reactants are H2 and Air.  Since "exploded" formulas are not given,
 #          these formulas will be taken from the thermodynamic data library,
 #          thermo.lib.
 #     (c)  Calculations are for two equivalence ratios (r,eq.ratio =1,1.5).
 #     (d)  Assigned pressures are 1, 0.1, and 0.01 atm (p(atm)=1,.1,.01).
 #     (e)  Assigned temperatures are 3000 and 2000 K (t(k)=3000,2000).
 #     (f)  'only' dataset is used to restrict possible products.
 #     (g)  Energy units in the final tables are in calories (calories).
  
 # 'problem' dataset:
    problem case=Example-1 tp  p(atm)=1,.1,.01,t(k)=3000,2000,
              r,eq.ratio=1,1.5
 # 'reactants' dataset:
    reac
      fuel= H2  moles = 1.
      oxid= Air moles = 1.
 # 'only' dataset:
    only  Ar    C   CO  CO2  H   H2   H2O  HNO   HO2   HNO2  HNO3  N   NH
       NO   N2   N2O3  O  O2  OH  O3
 # 'output' dataset:
    output calories
 # 'end' dataset
    end

 OPTIONS: TP=T  HP=F  SP=F  TV=F  UV=F  SV=F  DETN=F  SHOCK=F  REFL=F  INCD=F
 RKT=F  FROZ=F  EQL=F  IONS=F  SIUNIT=F  DEBUGF=F  SHKDBG=F  DETDBG=F  TRNSPT=F

 T,K =  3000.0000  2000.0000

 TRACE= 0.00E+00  S/R= 0.000000E+00  H/R= 0.000000E+00  U/R= 0.000000E+00

 P,BAR =     1.013250     0.101325     0.010133
